[General]
network = VoipStreamReceiverApplication
scheduler-class = "inet::RealTimeScheduler"
cmdenv-express-mode = true
cmdenv-event-banners = true
sim-time-limit = 1h

*.app.localPort = 60000
*.app.resultFile = "results/sound.wav"
